Version 4
SHEET 1 1892 680
WIRE 1200 -432 992 -432
WIRE 1264 -432 1248 -432
WIRE 1792 -432 1264 -432
WIRE 1792 -384 1296 -384
WIRE 1808 -384 1792 -384
WIRE 1872 -384 1872 -432
WIRE 1232 -352 1008 -352
WIRE 1296 -352 1296 -384
WIRE 1280 -288 1024 -288
WIRE 1792 -288 1344 -288
WIRE 1872 -288 1872 -384
WIRE 1328 -240 1040 -240
WIRE 1792 -240 1392 -240
WIRE 1872 -240 1872 -288
WIRE 992 -208 992 -432
WIRE 992 -208 976 -208
WIRE 688 -192 176 -192
WIRE 1376 -192 1056 -192
WIRE 1792 -192 1440 -192
WIRE 1872 -192 1872 -240
WIRE 1008 -176 1008 -352
WIRE 1008 -176 976 -176
WIRE 1024 -144 1024 -288
WIRE 1024 -144 976 -144
WIRE 1424 -144 1072 -144
WIRE 1792 -144 1488 -144
WIRE 1872 -144 1872 -192
WIRE 1040 -112 1040 -240
WIRE 1040 -112 976 -112
WIRE 1472 -96 1088 -96
WIRE 1792 -96 1536 -96
WIRE 1872 -96 1872 -144
WIRE 1056 -80 1056 -192
WIRE 1056 -80 976 -80
WIRE 1072 -48 1072 -144
WIRE 1072 -48 976 -48
WIRE 1504 -48 1104 -48
WIRE 1792 -48 1568 -48
WIRE 1872 -48 1872 -96
WIRE 1088 -16 1088 -96
WIRE 1088 -16 976 -16
WIRE 1552 0 1120 0
WIRE 1792 0 1616 0
WIRE 1872 0 1872 -48
WIRE 1104 16 1104 -48
WIRE 1104 16 976 16
WIRE 1120 48 1120 0
WIRE 1120 48 976 48
WIRE 1600 48 1152 48
WIRE 1792 48 1664 48
WIRE 1872 48 1872 0
WIRE -320 80 -384 80
WIRE -208 80 -256 80
WIRE -64 80 -208 80
WIRE 176 80 176 -192
WIRE 176 80 160 80
WIRE 1152 80 1152 48
WIRE 1152 80 976 80
WIRE 1648 96 1168 96
WIRE 1776 96 1712 96
WIRE 1872 96 1872 48
WIRE 1872 96 1856 96
WIRE 1168 112 1168 96
WIRE 1168 112 976 112
WIRE -384 144 -384 80
WIRE -208 144 -320 144
WIRE -64 144 -208 144
WIRE 240 208 160 208
WIRE 1872 240 1872 96
WIRE -384 272 -384 144
WIRE -64 272 -384 272
WIRE 208 272 160 272
WIRE 1184 272 1040 272
WIRE -384 304 -384 272
WIRE 240 320 240 208
WIRE 688 320 240 320
WIRE 1040 352 1040 272
WIRE 1040 352 976 352
WIRE 208 384 208 272
WIRE 688 384 208 384
WIRE 1104 384 976 384
FLAG 1184 384 0
FLAG 1264 272 0
FLAG 1872 240 0
FLAG -384 304 0
SYMBOL Misc\\DIP8 48 176 R0
SYMATTR InstName MCP7940M
SYMBOL Misc\\xtal -192 144 R180
WINDOW 0 24 72 Left 2
WINDOW 3 24 0 Left 2
SYMATTR InstName C1
SYMBOL Misc\\Rpi 832 -96 R0
SYMATTR InstName Rpi_using_wPi_pins
SYMBOL cap -256 64 R90
WINDOW 0 0 32 VBottom 2
WINDOW 3 32 32 VTop 2
SYMATTR InstName C2
SYMATTR Value 10pF
SYMBOL cap -320 128 R90
WINDOW 0 0 32 VBottom 2
WINDOW 3 32 32 VTop 2
SYMATTR InstName C3
SYMATTR Value 10pF
SYMBOL LED 1200 -416 R270
WINDOW 0 72 32 VTop 2
WINDOW 3 0 32 VBottom 2
SYMATTR InstName D1
SYMBOL LED 1232 -336 R270
WINDOW 0 72 32 VTop 2
WINDOW 3 0 32 VBottom 2
SYMATTR InstName D2
SYMBOL LED 1280 -272 R270
WINDOW 0 72 32 VTop 2
WINDOW 3 0 32 VBottom 2
SYMATTR InstName D3
SYMBOL LED 1328 -224 R270
WINDOW 0 72 32 VTop 2
WINDOW 3 0 32 VBottom 2
SYMATTR InstName D4
SYMBOL LED 1376 -176 R270
WINDOW 0 72 32 VTop 2
WINDOW 3 0 32 VBottom 2
SYMATTR InstName D5
SYMBOL LED 1424 -128 R270
WINDOW 0 72 32 VTop 2
WINDOW 3 0 32 VBottom 2
SYMATTR InstName D6
SYMBOL LED 1472 -80 R270
WINDOW 0 72 32 VTop 2
WINDOW 3 0 32 VBottom 2
SYMATTR InstName D7
SYMBOL LED 1504 -32 R270
WINDOW 0 72 32 VTop 2
WINDOW 3 0 32 VBottom 2
SYMATTR InstName D8
SYMBOL LED 1552 16 R270
WINDOW 0 72 32 VTop 2
WINDOW 3 0 32 VBottom 2
SYMATTR InstName D9
SYMBOL LED 1600 64 R270
WINDOW 0 72 32 VTop 2
WINDOW 3 0 32 VBottom 2
SYMATTR InstName D10
SYMBOL LED 1648 112 R270
WINDOW 0 72 32 VTop 2
WINDOW 3 0 32 VBottom 2
SYMATTR InstName D11
SYMBOL csw 1264 272 R90
WINDOW 0 -32 40 VBottom 2
WINDOW 3 32 40 VTop 2
SYMATTR InstName W1
SYMBOL csw 1184 384 R90
WINDOW 0 -32 40 VBottom 2
WINDOW 3 32 40 VTop 2
SYMATTR InstName W2
SYMBOL res 1872 80 R90
WINDOW 0 0 56 VBottom 2
WINDOW 3 32 56 VTop 2
SYMATTR InstName R1
SYMBOL res 1888 32 R90
WINDOW 0 0 56 VBottom 2
WINDOW 3 32 56 VTop 2
SYMATTR InstName R2
SYMBOL res 1888 -16 R90
WINDOW 0 0 56 VBottom 2
WINDOW 3 32 56 VTop 2
SYMATTR InstName R3
SYMBOL res 1888 -64 R90
WINDOW 0 0 56 VBottom 2
WINDOW 3 32 56 VTop 2
SYMATTR InstName R4
SYMBOL res 1888 -112 R90
WINDOW 0 0 56 VBottom 2
WINDOW 3 32 56 VTop 2
SYMATTR InstName R5
SYMBOL res 1888 -160 R90
WINDOW 0 0 56 VBottom 2
WINDOW 3 32 56 VTop 2
SYMATTR InstName R6
SYMBOL res 1888 -208 R90
WINDOW 0 0 56 VBottom 2
WINDOW 3 32 56 VTop 2
SYMATTR InstName R7
SYMBOL res 1888 -256 R90
WINDOW 0 0 56 VBottom 2
WINDOW 3 32 56 VTop 2
SYMATTR InstName R8
SYMBOL res 1888 -304 R90
WINDOW 0 0 56 VBottom 2
WINDOW 3 32 56 VTop 2
SYMATTR InstName R9
SYMBOL res 1888 -400 R90
WINDOW 0 0 56 VBottom 2
WINDOW 3 32 56 VTop 2
SYMATTR InstName R11
SYMBOL res 1888 -448 R90
WINDOW 0 0 56 VBottom 2
WINDOW 3 32 56 VTop 2
SYMATTR InstName R12
